
 *******************************************************************************

         NASA-GLENN CHEMICAL EQUILIBRIUM PROGRAM CEA, JUNE 21, 2002
                   BY  BONNIE MCBRIDE AND SANFORD GORDON
      REFS: NASA RP-1311, PART I, 1994 AND NASA RP-1311, PART II, 1996

 *******************************************************************************



 # tmp.inp generated by CEAGas
 problem case=CEAGas vu
    rho,kg/m**3 1.444485e+01
    u/r         3.845921e+02
 react
    name= H2  moles=0.666667 t=300
    name= O2  moles=0.333333 t=300
 only H2 O2 O H OH H2O
 output massf trace=1.000000e-06
 end

 OPTIONS: TP=F  HP=F  SP=F  TV=F  UV=T  SV=F  DETN=F  SHOCK=F  REFL=F  INCD=F
 RKT=F  FROZ=F  EQL=F  IONS=F  SIUNIT=T  DEBUGF=F  SHKDBG=F  DETDBG=F  TRNSPT=F

 TRACE= 1.00E-06  S/R= 0.000000E+00  H/R= 0.000000E+00  U/R= 3.845921E+02

 SPECIFIC VOLUME,M**3/KG = 6.9228825E-02

    REACTANT           MOLES    (ENERGY/R),K   TEMP,K  DENSITY
        EXPLODED FORMULA
 N: H2               0.666667  -0.293582E+03   300.00  0.0000
          H  2.00000
 N: O2               0.333333  -0.293462E+03   300.00  0.0000
          O  2.00000

  SPECIES BEING CONSIDERED IN THIS SYSTEM
 (CONDENSED PHASE MAY HAVE NAME LISTED SEVERAL TIMES)
  LAST thermo.inp UPDATE:    5/03/02

  g 6/97  *H               tpis78  *H2              g 8/89  H2O            
  g 5/97  *O               g 4/02  *OH              tpis89  *O2            

 O/F =   0.000000

                       EFFECTIVE FUEL     EFFECTIVE OXIDANT        MIXTURE
 INTERNAL ENERGY           u(2)/R              u(1)/R              u0/R
 (KG-MOL)(K)/KG       -0.24441135E+02      0.00000000E+00      0.38459210E+03

 KG-FORM.WT./KG             bi(2)               bi(1)               b0i
  *H                   0.11101702E+00      0.00000000E+00      0.11101702E+00
  *O                   0.55508426E-01      0.00000000E+00      0.55508426E-01

 POINT ITN      T            H           O 
   1    7    4500.340      -9.109     -14.595




         THERMODYNAMIC EQUILIBRIUM COMBUSTION PROPERTIES AT ASSIGNED

                                     VOLUME

 CASE = CEAGas         

             REACTANT                       MOLES         ENERGY      TEMP
                                                         KJ/KG-MOL      K
 NAME        H2                           0.6666670     -2440.994    300.000
 NAME        O2                           0.3333330     -2439.995    300.000

 O/F=    0.00000  %FUEL=  0.000000  R,EQ.RATIO= 1.000002  PHI,EQ.RATIO= 0.000000

 THERMODYNAMIC PROPERTIES

 P, BAR            374.61
 T, K             4500.34
 RHO, KG/CU M     1.4445 1
 H, KJ/KG         5791.07
 U, KJ/KG         3197.69
 G, KJ/KG        -68153.9
 S, KJ/(KG)(K)    16.4310

 M, (1/n)          14.428
 (dLV/dLP)t      -1.08002
 (dLV/dLT)p        2.0911
 Cp, KJ/(KG)(K)   11.9780
 GAMMAs            1.1499
 SON VEL,M/SEC     1726.9

 MASS FRACTIONS

 *H               5.1248-3
 *H2              2.3473-2
 H2O              6.4105-1
 *O               4.1430-2
 *OH              1.9519-1
 *O2              9.3731-2

  * THERMODYNAMIC PROPERTIES FITTED TO 20000.K

    PRODUCTS WHICH WERE CONSIDERED BUT WHOSE MASS FRACTIONS
    WERE LESS THAN 1.000000E-06 FOR ALL ASSIGNED CONDITIONS





